/ Machine Data
/  Bus,    Model,   ID, Tdo',    Tdo", tqo',    tqo",              H,            D,          Xd,          Xq,         Xd',         Xq', Xd"=Xq",  Xl, S(1.0), S(1.2)
10, 'GENSAL', '1 ',5.31350179557,0.0456045932388,0.197262737152,13.63802037,5.0665156,0.729764793946,0.611625781941,0.0792020781449,0.0535657865046,0,0,0 /
16, 'GENSAL', '1 ',4.78187612375,0.0519426371096,0.1918398542,20.54843666,7.94423551,0.700467190309,0.566716382112,0.0811921753954,0.048852391269,0,0,0 /
17, 'GENSAL', '1 ',4.90788167226,0.0526562086068,0.198322195727,28.32273244,11.0579403,0.711091526631,0.618151542524,0.0772423940702,0.0436172203936,0,0,0 /
18, 'GENSAL', '1 ',4.9891908287,0.0489713157427,0.201315306591,75,31.19879618,0.718535768306,0.602295371722,0.0710562557301,0.0493510537018,0,0,0 /
29, 'GENSAL', '1 ',4.75545729803,0.0493632559762,0.197933767306,12.37545338,4.5515627,0.719651002839,0.568007279791,0.0720027064488,0.0528902058868,0,0,0 /
30, 'GENSAL', '1 ',5.25851822235,0.0531581051277,0.187757864854,19.75090676,7.57731367,0.681983625191,0.589862028074,0.0751988980302,0.0512584565968,0,0,0 /
31, 'GENSAL', '1 ',5.17459271812,0.0528924861848,0.198470175787,26.59506198,10.34637324,0.698658526061,0.600086372635,0.0737271755895,0.0484221155436,0,0,0 /
41, 'GENSAL', '1 ',6.07867554753,0.0499065908774,0.180681512013,9.31902125,3.27776554,0.651086764065,0.626657891297,0.0752800087669,0.0527979216899,0,0,0 /
42, 'GENSAL', '1 ',4.78161643314,0.0480015694883,0.212955640003,12.55983972,4.71761725,0.702680379956,0.553854708461,0.0773594760052,0.0515337538829,0,0,0 /
43, 'GENSAL', '1 ',4.99312029098,0.0560859325547,0.221759165087,13.85397364,5.28666687,0.67765768263,0.6231971218,0.0724578086288,0.0538884597566,0,0,0 /
44, 'GENSAL', '1 ',5.04995697888,0.0494697567941,0.183461710786,13.85397364,4.89091062,0.782075181133,0.648107518652,0.0749468846844,0.0473302443799,0,0,0 /
45, 'GENSAL', '1 ',5.92293955341,0.0475697140023,0.195739387194,5.91131176,1.87595973,0.754667637872,0.58536474287,0.0787567049406,0.0482164261536,0,0,0 /
63, 'GENSAL', '1 ',5.16546129619,0.04979645887,0.201304448119,19.03678586,7.13316955,0.723159006458,0.596806578864,0.0687406726803,0.0527566662999,0,0,0 /
64, 'GENSAL', '1 ',5.03253687659,0.0509292716703,0.200349972999,14.71776462,5.17793319,0.709548700129,0.560653422786,0.0743287376885,0.0497939314909,0,0,0 /
67, 'GENSAL', '1 ',4.85604167324,0.0477260339556,0.199451050806,21.19629649,8.4143001,0.648166270357,0.572290810038,0.0685806288796,0.0499761198589,0,0,0 /
83, 'GENSAL', '1 ',5.85678688527,0.0491991997594,0.200022646207,9.85888231,3.54324056,0.663260347565,0.626482970036,0.0777811800117,0.0477300100302,0,0,0 /
84, 'GENSAL', '1 ',5.88447615,0.049169279699,0.198531224768,9.85888231,3.22936602,0.677065688817,0.591325134001,0.0785927064027,0.0418907280833,0,0,0 /
85, 'GENSAL', '1 ',6.41759703418,0.0499495560885,0.192499026632,7.59141717,2.19374421,0.631348228829,0.610803178515,0.0746199348492,0.0539909212945,0,0,0 /
86, 'GENSAL', '1 ',5.87371473048,0.0477893163161,0.208718569179,7.59141717,2.30831878,0.691618069303,0.63722302519,0.0733688814939,0.0453989374806,0,0,0 /
93, 'GENSAL', '1 ',5.99492195201,0.0513327592929,0.198624486857,7.59141717,2.36594223,0.771065847567,0.582897880295,0.0783751963627,0.0498290873327,0,0,0 /
95, 'GENSAL', '1 ',6.28678698835,0.0563141254117,0.193793388461,7.3754639,2.17207457,0.649256417212,0.628856581571,0.0840767208988,0.0522220443469,0,0,0 /
97, 'GENSAL', '1 ',5.80739694491,0.0508721762771,0.19856942991,6.89172635,2.02552428,0.651645791747,0.568922686145,0.0724925592394,0.050271695528,0,0,0 /
103, 'GENSAL', '1 ',5.00646310011,0.0506394660565,0.217547684167,12.37545338,4.57594329,0.694313711779,0.569491462959,0.0675973982336,0.0509572213436,0,0,0 /
104, 'GENSAL', '1 ',5.63298554569,0.0469288655601,0.203505413809,9.85888231,3.36357492,0.759052220288,0.591521890006,0.0722226388551,0.0475794129633,0,0,0 /
105, 'GENSAL', '1 ',5.61231330817,0.0503572315839,0.188088886354,14.28588019,5.3951071,0.672487640523,0.662692397063,0.0716676235131,0.0500689642306,0,0,0 /
109, 'GENSAL', '1 ',5.91317509972,0.0495403560171,0.214727664433,10.3987655,3.81222129,0.706442755771,0.576390553493,0.0732667343212,0.0546575337547,0,0,0 /
110, 'GENSAL', '1 ',5.79315189875,0.0489875869297,0.188585608325,10.3987655,3.48004604,0.684185646228,0.581403434964,0.0763991339117,0.0471872505525,0,0,0 /
111, 'GENSAL', '1 ',4.84441960023,0.0518150599428,0.196241798548,12.77422939,4.37731666,0.72146775877,0.598220030012,0.0731491515278,0.0521719945639,0,0,0 /
123, 'GENSAL', '1 ',6.00031071514,0.0498463146737,0.201950144716,7.02824968,2.25616564,0.713349780886,0.601160066475,0.0771554908517,0.0446761138959,0,0,0 /
124, 'GENSAL', '1 ',5.78297994246,0.0517863891089,0.187859997908,7.69937168,2.23156544,0.687668372863,0.615748021297,0.0742890691945,0.0504460270891,0,0,0 /
125, 'GENSAL', '1 ',5.27316485451,0.0559669515799,0.194917039224,20.85722477,8.158631,0.675654286798,0.677033968696,0.0746140685461,0.049433184348,0,0,0 /
127, 'GENSAL', '1 ',4.85220526464,0.0490598185503,0.205833809793,19.90057684,7.86353472,0.71069816246,0.620144706137,0.0785749213376,0.0508858354583,0,0,0 /
131, 'GENSAL', '1 ',4.9812001942,0.0442437982111,0.204505088357,24.54495146,9.41295566,0.632945561061,0.613710524937,0.0717566594837,0.0529213346348,0,0,0 /
132, 'GENSAL', '1 ',4.93986141639,0.0493347281102,0.195397409706,16.06318007,5.96494426,0.718552968419,0.575980161187,0.0782886151127,0.0475393746991,0,0,0 /
139, 'GENSAL', '1 ',5.05369907221,0.05512046364,0.209899898966,16.06318007,6.16192192,0.698125842899,0.530101188608,0.0756467706942,0.0510211189511,0,0,0 /
140, 'GENSAL', '1 ',5.71242696287,0.0436523756035,0.196391286912,9.31902125,2.92377894,0.667717799598,0.579708367918,0.0801524564466,0.0494645364447,0,0,0 /
176, 'GENSAL', '1 ',5.14478294079,0.0454250682436,0.191543516567,17.95704162,6.9356536,0.624835015397,0.612312168956,0.0722869410718,0.0500883831552,0,0,0 /
177, 'GENSAL', '1 ',6.27745923368,0.0451715462542,0.203705937603,9.31902125,3.24190157,0.781141105736,0.637272708337,0.0716579115752,0.0501679662198,0,0,0 /
180, 'GENSAL', '1 ',6.41290102728,0.0473781794715,0.196802609224,5,1.33753927,0.663148506187,0.615535715971,0.0712688999745,0.0464598251095,0,0,0 /
181, 'GENSAL', '1 ',5.84390809548,0.0538017569613,0.213062542148,8.84998667,2.71584538,0.754636917476,0.575663670034,0.0732759754199,0.0515354170161,0,0,0 /
182, 'GENSAL', '1 ',5.43621925557,0.0486376292176,0.215218477232,11.7706662,3.92136568,0.678697216427,0.683196407255,0.0680543591524,0.0488867188683,0,0,0 /
184, 'GENSAL', '1 ',6.10587411066,0.05136957175,0.173008878201,5,1.32801154,0.712331524579,0.617392265012,0.0773461256781,0.0544008883787,0,0,0 /
185, 'GENSAL', '1 ',5.72033650676,0.0497300274569,0.19951300226,5,1.12559131,0.703701479091,0.594158755784,0.0800656587805,0.045958202123,0,0,0 /
186, 'GENSAL', '1 ',5.8062267535,0.0503003455992,0.199309339981,5,1.49420919,0.711507783836,0.595699406267,0.0753289224423,0.0509212865256,0,0,0 /
192, 'GENSAL', '1 ',6.17090268557,0.0482147117661,0.216483629213,7.05152956,2.14591848,0.685287640274,0.569784316832,0.0725105975588,0.0474889575216,0,0,0 /
196, 'GENSAL', '1 ',6.03379514083,0.0477416576452,0.197088383306,5.01943555,1.03791714,0.714245787999,0.555906131347,0.0781525314296,0.048388684883,0,0,0 /
198, 'GENSAL', '1 ',6.17786137103,0.0499351926943,0.195732168347,5.01727604,1.35678167,0.725692602873,0.560316962961,0.0729008661485,0.0512041758264,0,0,0 /
205, 'GENSAL', '1 ',5.75385368519,0.0510807856773,0.213067216113,5.32392549,1.45241259,0.690248015907,0.559653773665,0.0759633026337,0.0498860236306,0,0,0 /
213, 'GENSAL', '1 ',5.97273894425,0.0501747017389,0.207483756641,5.23754639,1.54969487,0.679795959793,0.575972482362,0.075257450436,0.0491162763124,0,0,0 /
264, 'GENSAL', '1 ',6.20796829285,0.049290467214,0.20842217183,5.05398765,1.1040999,0.668585889758,0.58725112229,0.0727169122537,0.054509995548,0,0,0 /
269, 'GENSAL', '1 ',5.55669749741,0.0455669270533,0.220931436103,5.12957042,1.36072097,0.651955522446,0.595817361681,0.0760190048315,0.0495044634741,0,0,0 /
277, 'GENSAL', '1 ',6.02428413826,0.0521547920339,0.192511261784,6.51165301,1.80634384,0.712341910656,0.595596890486,0.0684411835886,0.0492412213083,0,0,0 /
278, 'GENSAL', '1 ',6.18516368143,0.0480972550996,0.203414716634,6.29570416,1.93693462,0.717068935746,0.579417751295,0.0704822537278,0.0499613572668,0,0,0 /
279, 'GENSAL', '1 ',6.13625843005,0.0510302620641,0.217479251275,6.29570416,1.63344282,0.689861039561,0.60746045147,0.0742790152957,0.0501508196932,0,0,0 /
281, 'GENSAL', '1 ',6.18877213952,0.05439794719,0.202691933958,7.59141717,2.57555115,0.672994902981,0.626478209181,0.0805165526799,0.0507779772472,0,0,0 /
282, 'GENSAL', '1 ',5.24420154776,0.0516286748941,0.188502526284,5.86380204,1.61910613,0.699393352244,0.608969706431,0.076966824257,0.0505315387938,0,0,0 /
289, 'GENSAL', '1 ',5.74687996545,0.0511688749948,0.186916654234,5.05398765,1.43975455,0.812032610963,0.63098244189,0.0778894831236,0.0514036821335,0,0,0 /
294, 'GENSAL', '1 ',5.69990956639,0.0496304716409,0.191414456116,5.04319021,1.1334948,0.757237138752,0.668113952678,0.0745586054194,0.0483246857545,0,0,0 /
314, 'GENSAL', '1 ',5.62748947816,0.0490752569178,0.188963089901,5.03239255,1.06728753,0.719314345574,0.623762831566,0.0771812302969,0.0482604109557,0,0,0 /
328, 'GENSAL', '1 ',6.0051469933,0.0523540079177,0.208552552772,5.95018335,1.74407162,0.659169128953,0.59944531862,0.0765558954333,0.0455315274062,0,0,0 /
329, 'GENSAL', '1 ',5.62034808977,0.0497962928143,0.190730315378,5.95018335,1.69671306,0.745721942687,0.631981206627,0.073588822202,0.0496505719714,0,0,0 /
330, 'GENSAL', '1 ',6.29925490336,0.0538747311382,0.198865507063,5.95018335,1.84514612,0.757144159744,0.586654012113,0.0794191493766,0.0544933308267,0,0,0 /
331, 'GENSAL', '1 ',5.8638093444,0.0457032852319,0.186965699088,5.92858802,1.89653011,0.720562368556,0.580573194132,0.0768324365365,0.0532197708724,0,0,0 /
334, 'GENSAL', '1 ',5.61497711494,0.0556885480583,0.208482492335,5.03239255,1.15153569,0.721035224845,0.620113440184,0.0778413414567,0.0455119545967,0,0,0 /
346, 'GENSAL', '1 ',6.4632103096,0.0531078678703,0.189153196456,9.31902125,3.22232724,0.721935660691,0.618689371858,0.0747979391904,0.048472478365,0,0,0 /
347, 'GENSAL', '1 ',6.03118777708,0.0504850008472,0.198311464343,5.2212636,1.23719323,0.763155197157,0.563007300332,0.0755166325628,0.0499533276094,0,0,0 /
359, 'GENSAL', '1 ',6.21769283524,0.0444837133772,0.209506331216,5.03239255,1.37700686,0.735734232001,0.607363847379,0.0737131863964,0.0535477695193,0,0,0 /
365, 'GENSAL', '1 ',6.44664551157,0.0471893675888,0.207334997586,5.11013484,1.29273582,0.80442851927,0.582326927692,0.074479223881,0.0512712860098,0,0,0 /
382, 'GENSAL', '1 ',6.2044946959,0.050741850389,0.202747373891,5.17276041,1.50804822,0.701289830012,0.63999784857,0.0717244493542,0.050451491006,0,0,0 /
383, 'GENSAL', '1 ',6.36226424332,0.0486753663808,0.20189470293,5.17276041,1.15517103,0.674283489752,0.608320944882,0.0747837061341,0.0496853891614,0,0,0 /
385, 'GENSAL', '1 ',6.01476676106,0.0507029553418,0.206657455272,5.12957042,1.54119273,0.688457168358,0.603955209943,0.0712432339143,0.051481194552,0,0,0 /
390, 'GENSAL', '1 ',5.77155991274,0.0497494070787,0.192900510143,5.09717765,1.06609041,0.690732436373,0.613333576375,0.072370112629,0.0474786987627,0,0,0 /
395, 'GENSAL', '1 ',6.0746542137,0.0525436682305,0.190304739997,5.21595062,1.44282322,0.640654232887,0.606303905933,0.071728779684,0.0487793440211,0,0,0 /
404, 'GENSAL', '1 ',5.8858248887,0.0515256661958,0.207487128882,5.0647851,1.3537375,0.69886241289,0.65579172544,0.0785354082207,0.0482894367726,0,0,0 /
426, 'GENSAL', '1 ',5.83258258277,0.0510396251909,0.204420205087,5.06910416,1.05284561,0.657328060996,0.581752468685,0.076260892917,0.0485610119011,0,0,0 /
444, 'GENSAL', '1 ',6.12218459169,0.0537090603565,0.195563473414,5.02159506,1.10790546,0.717134900505,0.615561898633,0.0786260289709,0.0493583365531,0,0,0 /
451, 'GENSAL', '1 ',5.43674898405,0.0486451942449,0.187754194921,5.09717765,1.20695107,0.654052455816,0.568313232446,0.0791911002719,0.0493882772493,0,0,0 /
482, 'GENSAL', '1 ',6.19267845574,0.0496973286201,0.215987493103,5.02159506,1.3855775,0.71758281854,0.574465532616,0.0781840247753,0.0481330996919,0,0,0 /
492, 'GENSAL', '1 ',5.61801148373,0.0499383443239,0.213019012891,5.04319021,1.20101738,0.706503697378,0.552498286742,0.0736519048277,0.048026334842,0,0,0 /
493, 'GENSAL', '1 ',5.95085762636,0.0493620183225,0.19997807861,10.05324026,3.4310599,0.712263153427,0.631397268329,0.078387809939,0.0491181997739,0,0,0 /
494, 'GENSAL', '1 ',6.20198752933,0.0446567970185,0.207458540812,10.05324026,3.34276505,0.791607044641,0.548069595444,0.0809177364325,0.046977557436,0,0,0 /
514, 'GENSAL', '1 ',5.72345150981,0.0501894574868,0.19909377396,7.48344054,2.32166869,0.718830897477,0.628961967353,0.0704948711092,0.0462532315145,0,0,0 /
515, 'GENSAL', '1 ',5.41154473189,0.050985104779,0.201426249796,7.48344054,2.19518134,0.685286267939,0.603769157045,0.0729018404679,0.0503317767792,0,0,0 /
525, 'GENSAL', '1 ',6.16116269697,0.0466995681359,0.204365653495,5.12957042,1.48139992,0.706391789932,0.591416686413,0.0785239030556,0.0488929699392,0,0,0 /
536, 'GENSAL', '1 ',5.69897732906,0.0549996765682,0.211142490824,5.12957042,1.36715081,0.720550243271,0.631844931329,0.0735176249634,0.0467064832396,0,0,0 /
537, 'GENSAL', '1 ',6.12403189017,0.0537596128921,0.209442756744,5.07558276,1.18462749,0.729829399096,0.637279188387,0.0755416808949,0.0535770696743,0,0,0 /
556, 'GENSAL', '1 ',6.00157513736,0.0473449136155,0.192662522354,5.05830672,1.41272787,0.697396744605,0.582819590192,0.083017924959,0.0461051784197,0,0,0 /
580, 'GENSAL', '1 ',6.18941111875,0.0523945246421,0.207537318037,5.03455208,1.46258403,0.665310313692,0.598554170345,0.0765740132494,0.0533745460103,0,0,0 /
584, 'GENSAL', '1 ',6.1456125845,0.0519622144995,0.20265716311,5.05830672,1.39369245,0.710300647859,0.563247397058,0.076394414842,0.0459443118221,0,0,0 /
585, 'GENSAL', '1 ',6.01867925149,0.0494282405781,0.185202410459,5.0863802,1.46479629,0.778745920369,0.555850409216,0.0746159909033,0.0488607056547,0,0,0 /
607, 'GENSAL', '1 ',6.15517921426,0.0498463841079,0.190174905748,5.01727604,1.41746668,0.682300640118,0.619169574599,0.0784621001453,0.0505379036871,0,0,0 /
612, 'GENSAL', '1 ',6.66494574654,0.0526212120372,0.194230325333,8.68772669,3.01306477,0.776832904256,0.596205365614,0.0752346445821,0.0537279093085,0,0,0 /
613, 'GENSAL', '1 ',5.76557655215,0.0496410123677,0.205557283687,9.31902125,3.04207392,0.703486199053,0.611999796191,0.0737289076684,0.0517307448341,0,0,0 /
615, 'GENSAL', '1 ',6.0779194085,0.0497674170663,0.201710470868,5.03023302,1.31866054,0.738379378415,0.618686367923,0.0765251021543,0.0461992949556,0,0,0 /
623, 'GENSAL', '1 ',6.17613507716,0.0514772606333,0.190947775063,5.1641225,1.27809119,0.656732226007,0.593173664946,0.0687836880795,0.0419944119004,0,0,0 /
639, 'GENSAL', '1 ',5.7609259033,0.0496475412235,0.205308467613,5.20731249,1.20991561,0.698196497262,0.564038092362,0.0707071793419,0.0525984651163,0,0,0 /
651, 'GENSAL', '1 ',5.73953000999,0.0477841636227,0.21274716993,5.10149671,1.07412412,0.676356696268,0.548296918462,0.07569611018,0.0528947081906,0,0,0 /
654, 'GENSAL', '1 ',6.34190288887,0.0528816751561,0.195082687285,5.03023302,1.42171506,0.693550289203,0.628563302783,0.0760411317288,0.0517954559425,0,0,0 /
664, 'GENSAL', '1 ',6.19180711606,0.0497253105876,0.21653115092,5.13388926,1.24919716,0.668763543706,0.56922381504,0.0768553889425,0.051011925666,0,0,0 /
670, 'GENSAL', '1 ',6.11454945755,0.0464707090143,0.192264482052,5.05830672,1.51440883,0.738099202636,0.595934821428,0.0772931839135,0.0533266740616,0,0,0 /
674, 'GENSAL', '1 ',6.30197752161,0.0486694544195,0.209092380516,5.02159506,1.20019129,0.679129638387,0.595244765681,0.0742070879684,0.0496593242089,0,0,0 /
688, 'GENSAL', '1 ',5.83100827741,0.0519729392056,0.211282232272,8.72460396,2.91133368,0.67771168479,0.559779557224,0.0806042411735,0.0489484899594,0,0,0 /
692, 'GENSAL', '1 ',5.93987810923,0.0479244883609,0.199792454731,5.03023302,1.23463291,0.639719151572,0.565984363234,0.075277605654,0.0488267243105,0,0,0 /
699, 'GENSAL', '1 ',6.18781672775,0.0502526460109,0.181169383796,5.08206114,1.04793017,0.644435054094,0.588899290873,0.0774566524997,0.046333402047,0,0,0 /
712, 'GENSAL', '1 ',5.78803907372,0.0546145298946,0.20085658646,5.02591417,1.1277137,0.730813705894,0.578847369869,0.0808610361131,0.0493937664233,0,0,0 /
730, 'GENSAL', '1 ',6.08460088778,0.0500621885522,0.201968844382,5.14900577,1.45348384,0.688766864751,0.546826006123,0.0755548330633,0.0505849322009,0,0,0 /
732, 'GENSAL', '1 ',6.07209264525,0.051602952669,0.197268082896,5.02375464,1.09516518,0.656358672523,0.624059116731,0.0705836457152,0.052740396711,0,0,0 /
735, 'GENSAL', '1 ',6.23692853499,0.0473859740892,0.203936498705,5.08853974,1.24523116,0.618701735007,0.571679353656,0.0724217030172,0.0490687555379,0,0,0 /
740, 'GENSAL', '1 ',6.09970041518,0.0550534089794,0.190188323092,5.0863802,1.33442012,0.674683405261,0.59985370171,0.0748001030021,0.0506363771799,0,0,0 /
744, 'GENSAL', '1 ',6.12340587397,0.051132688867,0.196499599105,7.89372963,2.69560488,0.739523550738,0.588048952541,0.0777918437522,0.0501354224215,0,0,0 /
754, 'GENSAL', '1 ',5.94540564984,0.0523305211507,0.204355116992,6.72760407,1.99359753,0.684118324532,0.567048893398,0.0769516163679,0.0490352027271,0,0,0 /
755, 'GENSAL', '1 ',6.04773236682,0.0489188860948,0.211021917108,9.60965836,3.19488447,0.67271831792,0.568818620173,0.0732555090881,0.0531842306455,0,0,0 /
760, 'GENSAL', '1 ',5.71923796613,0.0507093814704,0.192005243144,5.06694463,1.04483663,0.72310611908,0.626171202122,0.0766508753098,0.0498872061589,0,0,0 /
766, 'GENSAL', '1 ',6.06619003241,0.0540949679353,0.199221484131,5.04534952,1.13364012,0.76569125574,0.561154482132,0.0750488669076,0.0513672691467,0,0,0 /
784, 'GENSAL', '1 ',5.88348756333,0.0529409887322,0.20093356133,5.01511653,1.09728072,0.709176563137,0.628269719956,0.0778864335292,0.0546472118622,0,0,0 /
790, 'GENSAL', '1 ',6.18296053222,0.0512636774634,0.190670805481,6.07543403,1.58217841,0.658501011689,0.622642730906,0.0723021702659,0.0515564745795,0,0,0 /
795, 'GENSAL', '1 ',6.22007436763,0.0486505879203,0.209183517205,5.04081473,1.42221983,0.688685561224,0.593121954013,0.0733232254626,0.0489453930091,0,0,0 /
798, 'GENSAL', '1 ',5.57747421614,0.0437594192402,0.204837537715,5.06456914,1.28731672,0.678936911298,0.567038871501,0.0756454578437,0.0457447057465,0,0,0 /
814, 'GENSAL', '1 ',6.26438173927,0.0506323559342,0.185560836967,5.97005061,1.60004473,0.715837321686,0.555483745326,0.0724164094913,0.049655322219,0,0,0 /
834, 'GENSAL', '1 ',5.82087388029,0.0528826849459,0.194789587618,6.18772752,1.74020292,0.69716359522,0.641635319433,0.0781939653517,0.0524408692598,0,0,0 /
878, 'GENSAL', '1 ',5.66705819386,0.0502605980995,0.205989845798,5.06456914,1.33011425,0.728290685248,0.600263753667,0.0729049616719,0.050437182892,0,0,0 /
884, 'GENSAL', '1 ',5.87298902185,0.0509863669368,0.191646452497,5.0537717,1.30173433,0.661951322589,0.584552314076,0.0716621510154,0.0482894849736,0,0,0 /
892, 'GENSAL', '1 ',6.27617332006,0.0489868611581,0.204146122948,5.68823379,1.31148473,0.684583853963,0.617145922315,0.0685813492675,0.0518065655779,0,0,0 /
895, 'GENSAL', '1 ',5.60513243805,0.0495967384518,0.217432391136,5.1934917,1.2824351,0.725312331139,0.609099725275,0.0793374836591,0.0497437477652,0,0,0 /
901, 'GENSAL', '1 ',5.53300722447,0.0522436717803,0.194491799734,5.0794697,1.07571901,0.766440338813,0.585652844973,0.073374143073,0.0493099329545,0,0,0 /
910, 'GENSAL', '1 ',5.46062492682,0.0504060072,0.200274237735,5.09890527,1.28397115,0.64745321264,0.634797468763,0.0758529534881,0.0524072883003,0,0,0 /
911, 'GENSAL', '1 ',4.69895213358,0.0500516440883,0.211353682851,12.99016054,4.85262334,0.650246926252,0.662923730935,0.0727995754315,0.0511672317712,0,0,0 /
912, 'GENSAL', '1 ',5.14732145657,0.0504709861421,0.20954065495,12.99016054,4.84823279,0.652978276597,0.592699684386,0.0644340487741,0.0471668726659,0,0,0 /
914, 'GENSAL', '1 ',5.93917412169,0.0525800980009,0.184951511549,5.34400958,1.33260794,0.59388886637,0.568347894849,0.0769849007271,0.0512456638705,0,0,0 /
917, 'GENSAL', '1 ',6.22198936018,0.0523931920942,0.19963555879,5.04513357,1.3784031,0.670935531736,0.64374393498,0.07971476845,0.0491199729501,0,0,0 /
919, 'GENSAL', '1 ',5.6867750127,0.0503928131878,0.208498505135,5.47314787,1.20508298,0.717454820819,0.593835123311,0.0751197695956,0.049876111709,0,0,0 /
920, 'GENSAL', '1 ',6.39683556291,0.0486601346049,0.196745970777,5.04297426,1.40051174,0.689742032671,0.593682573048,0.0768737855335,0.0475351633793,0,0,0 /
929, 'GENSAL', '1 ',5.58207866691,0.0487723347545,0.192343710112,6.37625296,1.96317274,0.763144473643,0.653466818602,0.074790639484,0.0522235711231,0,0,0 /
959, 'GENSAL', '1 ',6.0200049289,0.0470956509546,0.218502411549,5.0537717,1.45250443,0.71934984737,0.565748222673,0.0714393302763,0.0487049301348,0,0,0 /
968, 'GENSAL', '1 ',5.9482286215,0.0492238767391,0.199899972252,5.01511653,1.23486299,0.7221401195,0.560011583554,0.0752889835969,0.0466823945649,0,0,0 /
993, 'GENSAL', '1 ',5.62036377647,0.0499677084818,0.200950491893,5.0859483,1.51072104,0.667263823908,0.585527565983,0.0781446774754,0.0526086438238,0,0,0 /
994, 'GENSAL', '1 ',5.88544749008,0.0495926833165,0.212390034803,5.04297426,1.33710427,0.6540187984,0.604343403197,0.0776223336026,0.0515653697383,0,0,0 /
995, 'GENSAL', '1 ',6.34548320123,0.0509557509244,0.219468560429,6.84386335,2.03903734,0.679851304321,0.680970298639,0.0683093699581,0.0474401804668,0,0,0 /
996, 'GENSAL', '1 ',6.80534586403,0.052510945218,0.207353869564,5.92193167,1.48967481,0.733680718108,0.576500286161,0.0708204045355,0.051180881871,0,0,0 /
997, 'GENSAL', '1 ',5.67988746006,0.048778077957,0.198424013711,5.92193167,1.7750216,0.684942951404,0.619757072588,0.0738398218346,0.0504686103619,0,0,0 /
1004, 'GENSAL', '1 ',6.11682902393,0.0525692234891,0.210105604765,5.0924269,1.22520734,0.641612087489,0.577457206762,0.0691808474962,0.0508147934346,0,0,0 /
1024, 'GENSAL', '1 ',6.18213191345,0.0515441125146,0.182683377354,5.00921932,1.10858801,0.772916902816,0.580448466515,0.0781087742296,0.0479158942692,0,0,0 /
1027, 'GENSAL', '1 ',6.02888982773,0.0521530986872,0.203146186994,5.53771702,1.3917307,0.655979432293,0.594014010577,0.0733958044699,0.0479298678817,0,0,0 /
1028, 'GENSAL', '1 ',5.69481834846,0.0477154745311,0.211316865136,5.06456914,1.13075888,0.680114131671,0.570469357342,0.0718446384367,0.0467379050099,0,0,0 /
1029, 'GENSAL', '1 ',6.12824410765,0.0467997816019,0.204248971564,5.53771702,1.43538448,0.763337192433,0.53875210684,0.0774506088731,0.0502592293089,0,0,0 /
1053, 'GENSAL', '1 ',6.42949049187,0.0505328309528,0.20372252188,6.29051996,1.62082397,0.729191327376,0.604178012842,0.0751349616259,0.0511934897867,0,0,0 /
1054, 'GENSAL', '1 ',6.15519557545,0.0443573258378,0.205843515597,5.64525998,1.6847423,0.693926717678,0.583881246507,0.0786569369712,0.0483315866741,0,0,0 /
1105, 'GENSAL', '1 ',6.67284165777,0.050385160326,0.19705834015,5.17211255,1.39290426,0.714325197477,0.526567825781,0.0675193419389,0.0523919981636,0,0,0 /
1106, 'GENSAL', '1 ',6.16374071746,0.0488998480315,0.206716177261,5.4947432,1.54993862,0.66845599095,0.568618222231,0.0718787256263,0.0514733019587,0,0,0 /
1107, 'GENSAL', '1 ',6.41213196397,0.0506818729115,0.214342006723,5.22804312,1.10200243,0.713856389122,0.607545985663,0.0727446792207,0.0529703269035,0,0,0 /
1138, 'GENSAL', '1 ',5.7150353293,0.045580414204,0.192745074532,5.96789107,1.78356236,0.715706510156,0.551974116228,0.0799913387321,0.0499936059648,0,0,0 /
1140, 'GENSAL', '1 ',6.56210798551,0.0474514648779,0.20228793011,9.96685895,3.51223896,0.690496476441,0.60133235906,0.0759179826508,0.0466449652488,0,0,0 /
1141, 'GENSAL', '1 ',6.18738272682,0.0552655652882,0.210163161718,9.14869253,2.85912903,0.707774199722,0.593167254719,0.0731322561042,0.0512178687589,0,0,0 /
1175, 'GENSAL', '1 ',5.17719013776,0.0482545904079,0.205958922715,5.81715746,1.83055379,0.696853282969,0.647682015327,0.077482925298,0.052736499835,0,0,0 /
1182, 'GENSAL', '1 ',6.25475192832,0.0483131819102,0.191568623038,7.21263601,2.34720566,0.709524776886,0.576887223997,0.0661770200944,0.0503597227125,0,0,0 /
1183, 'GENSAL', '1 ',6.14044425144,0.0491464314124,0.208339758482,7.59141717,2.40266628,0.724333989811,0.633301490045,0.0730854466349,0.0486321621033,0,0,0 /
1184, 'GENSAL', '1 ',6.06668762141,0.0485331565473,0.19648792541,7.59141717,2.13186868,0.659970259499,0.599411112387,0.0751271637525,0.0481393263524,0,0,0 /
1191, 'GENSAL', '1 ',5.31215521433,0.0468789469299,0.192578464286,7.30116358,2.15755731,0.774446651558,0.58015534917,0.0760604607651,0.0512021536323,0,0,0 /
1192, 'GENSAL', '1 ',6.30889886333,0.0523471165469,0.197250820318,10.3987655,3.49759476,0.632983265185,0.584341616902,0.067664824848,0.0510137878054,0,0,0 /
1201, 'GENSAL', '1 ',5.83382266282,0.0516941542026,0.200026449926,7.15065123,2.36450816,0.662575472599,0.581429856533,0.0755799903818,0.0489450024487,0,0,0 /
1202, 'GENSAL', '1 ',5.70021699338,0.0471554171774,0.198945472834,7.15065123,1.98423655,0.693122536777,0.6023763511,0.0785453574433,0.0520351021722,0,0,0 /
1203, 'GENSAL', '1 ',5.5416660265,0.0553964228107,0.205184944863,7.15065123,2.02107527,0.641406951096,0.595463643857,0.0670364059333,0.0485737268753,0,0,0 /
1232, 'GENSAL', '1 ',6.40181302602,0.0513595972778,0.180260483983,6.11840785,1.95816871,0.705027873098,0.567013210912,0.0780598657812,0.0496289128985,0,0,0 /
1233, 'GENSAL', '1 ',5.8724882476,0.0471915402813,0.212030181298,5.3226311,1.39741496,0.667954814444,0.584988851638,0.0732850419724,0.0527899157919,0,0,0 /
1244, 'GENSAL', '1 ',6.41587903721,0.0536546023592,0.201346099798,5.40857873,1.42282673,0.671654403566,0.573572676296,0.0755847171511,0.0509191114365,0,0,0 /
1247, 'GENSAL', '1 ',6.15216566207,0.0507236538795,0.213632256598,5.34400958,1.26572103,0.674680695818,0.64295365268,0.0765947560485,0.0480916453759,0,0,0 /
1250, 'GENSAL', '1 ',5.78493561068,0.0468922946982,0.199103944981,9.25832864,3.28513552,0.697102640544,0.640034843828,0.079875166253,0.051905501232,0,0,0 /
1268, 'GENSAL', '1 ',6.08624749992,0.0495692164701,0.203212187398,5.01079753,1.03610332,0.64219053384,0.570768142493,0.0735666816797,0.0510514827527,0,0,0 /
1316, 'GENSAL', '1 ',6.34482786946,0.0486489548547,0.202683089326,5.02159506,1.07982628,0.641775653859,0.659278508091,0.0800880601029,0.0501100630839,0,0,0 /
1325, 'GENSAL', '1 ',5.75995022144,0.0508007089351,0.186704140216,5.03001706,1.12776377,0.721944736166,0.601678451191,0.0792532483204,0.0501296695751,0,0,0 /
1349, 'GENSAL', '1 ',5.6122317056,0.0447537384435,0.208990218732,5.0321766,1.05207841,0.629297352802,0.588204198838,0.0782642799434,0.0504047176741,0,0,0 /
1356, 'GENSAL', '1 ',5.86133405455,0.0512882587786,0.198568711243,5.02159506,1.44069945,0.665475069503,0.626523070967,0.0668812213496,0.0488576356559,0,0,0 /
1359, 'GENSAL', '1 ',5.93866003519,0.0476886026716,0.206383739801,5.01727604,1.30126249,0.68764869271,0.567197905578,0.072278279197,0.0519115145067,0,0,0 /
1393, 'GENSAL', '1 ',6.09251877247,0.0530033226171,0.192645722954,5.275336,1.5651577,0.692895890453,0.575762149745,0.0694822743847,0.0507710495701,0,0,0 /
1403, 'GENSAL', '1 ',6.6117390805,0.055225435723,0.190750234264,5.0924269,1.2882624,0.65969480378,0.604933932731,0.0729237258985,0.0491795403822,0,0,0 /
1416, 'GENSAL', '1 ',4.65639970408,0.0475506583605,0.186458511685,13.01175587,4.82331338,0.697812691448,0.59437180747,0.073817461805,0.0547800203151,0,0,0 /
1417, 'GENSAL', '1 ',5.82673556702,0.0461316828364,0.193212976121,7.59141717,2.17427673,0.713375637121,0.630256681641,0.0734350422072,0.0482300461951,0,0,0 /
1418, 'GENSAL', '1 ',6.06880978382,0.0541699261438,0.211002417325,5.43190212,1.49092787,0.631266322195,0.568522392963,0.0767262070128,0.0455616569209,0,0,0 /
1426, 'GENSAL', '1 ',4.85775919383,0.0543474609123,0.184631264525,15.68955435,6.03659096,0.737425858104,0.58154864521,0.0721776599832,0.0528086979243,0,0,0 /
1429, 'GENSAL', '1 ',6.17856051925,0.046646177977,0.19768057659,5.00431902,1.25621747,0.67225577989,0.584481738089,0.0753170870319,0.048625292726,0,0,0 /
1469, 'GENSAL', '1 ',5.63501590187,0.0480048583523,0.220042244447,5.01295704,1.23611317,0.669308554006,0.643969612212,0.0758985231872,0.0522245393515,0,0,0 /
1475, 'GENSAL', '1 ',6.13200701369,0.052437180912,0.205309957558,5.04513357,1.379572,0.664698547614,0.584349230751,0.0776686477398,0.0513379020363,0,0,0 /
1504, 'GENSAL', '1 ',6.15484465179,0.050620769539,0.194109313059,5.67311707,1.30832804,0.641091293753,0.599185364793,0.0785314830781,0.0470219457297,0,0,0 /
1505, 'GENSAL', '1 ',5.6134191652,0.052070165226,0.204746657152,6.05383871,1.81187864,0.707328059939,0.649904260768,0.0722336316661,0.0534259510256,0,0,0 /
1514, 'GENSAL', '1 ',5.80738859025,0.0477142387355,0.183034120842,5.04945264,1.16560701,0.682236376438,0.625064357944,0.0764519593445,0.0478836665393,0,0,0 /
1534, 'GENSAL', '1 ',6.22914387111,0.0495368518462,0.181392681424,5.00647851,1.24809687,0.768574959918,0.627566635674,0.0709955628123,0.0485953085634,0,0,0 /
1536, 'GENSAL', '1 ',6.08135133895,0.0506812335358,0.212895543731,9.14869253,3.2147402,0.756035321482,0.595678125221,0.0724769657556,0.0525236804037,0,0,0 /
1537, 'GENSAL', '1 ',5.73154132653,0.0508444383016,0.212135075667,9.85888231,3.17677395,0.730473921784,0.570355925145,0.0762812659481,0.0529782500403,0,0,0 /
1538, 'GENSAL', '1 ',6.36457039348,0.0511117341221,0.197014844936,9.64292903,3.31266347,0.704824708818,0.57575107716,0.0729587456497,0.0478353228044,0,0,0 /